GridLAB-D/Modified 6-Node Base Case/DSS Model and Result Files/4busDYBal_Power_elem_kVA.txt

CIRCUIT ELEMENT POWER FLOW

(Power Flow into element from indicated Bus)

Power Delivery Elements

  Bus     Phase     kW     +j   kvar         kVA         PF

ELEMENT = "Vsource.SOURCE"
SOURCEBUS     1     -2198.1 +j  -1692.7     2774.4       0.7923
SOURCEBUS     2     -2241.8 +j  -1574.0     2739.2       0.8184
SOURCEBUS     3     -2322.8 +j  -1671.2     2861.5       0.8117
   TERMINAL TOTAL . -6762.7 +j  -4938.0     8373.7       0.8076
SOURCEBUS     0         0.0 +j      0.0        0.0       1.0000
SOURCEBUS     0         0.0 +j      0.0        0.0       1.0000
SOURCEBUS     0         0.0 +j      0.0        0.0       1.0000
   TERMINAL TOTAL .     0.0 +j      0.0        0.0       1.0000

ELEMENT = "Line.LINE1"
SOURCEBUS     1      2198.1 +j   1692.7     2774.4       0.7923
SOURCEBUS     2      2241.8 +j   1574.0     2739.2       0.8184
SOURCEBUS     3      2322.8 +j   1671.2     2861.5       0.8117
   TERMINAL TOTAL .  6762.7 +j   4938.0     8373.7       0.8076
N2            1     -2175.3 +j  -1657.0     2734.5       0.7955
N2            2     -2228.7 +j  -1542.0     2710.1       0.8224
N2            3     -2306.4 +j  -1631.5     2825.1       0.8164
   TERMINAL TOTAL . -6710.4 +j  -4830.5     8268.2       0.8116

ELEMENT = "Transformer.T1"
N2            1      2175.3 +j   1657.0     2734.5       0.7955
N2            2      2228.7 +j   1542.0     2710.1       0.8224
N2            3      2306.4 +j   1631.5     2825.1       0.8164
N2            0         0.0 +j      0.0        0.0       1.0000
   TERMINAL TOTAL .  6710.4 +j   4830.5     8268.2       0.8116
N3            1     -2281.6 +j  -1446.4     2701.4       0.8446
N3            2     -2115.0 +j  -1297.8     2481.4       0.8523
N3            3     -2196.7 +j  -1384.0     2596.4       0.8461
N3            0         0.0 +j      0.0        0.0       1.0000
   TERMINAL TOTAL . -6593.4 +j  -4128.2     7779.1       0.8476

ELEMENT = "Line.LINE2"
N3            1      2281.6 +j   1446.4     2701.4       0.8446
N3            2      2115.0 +j   1297.8     2481.4       0.8523
N3            3      2196.7 +j   1384.0     2596.4       0.8461
   TERMINAL TOTAL .  6593.4 +j   4128.2     7779.1       0.8476
N4            1     -2002.3 +j   -972.5     2226.0       0.8995
N4            2     -2000.9 +j   -971.3     2224.2       0.8996
N4            3     -2001.6 +j   -972.0     2225.1       0.8995
   TERMINAL TOTAL . -6004.8 +j  -2915.8     6675.3       0.8996

ELEMENT = "Line.LINE3"
N4            1       202.3 +j    100.8      226.0       0.8951
N4            2       200.9 +j     99.5      224.2       0.8961
N4            3       201.6 +j    100.2      225.1       0.8955
   TERMINAL TOTAL .   604.8 +j    300.5      675.4       0.8956
N5            1      -201.1 +j    -98.8      224.1       0.8975
N5            2      -200.5 +j    -98.2      223.2       0.8981
N5            3      -200.8 +j    -98.5      223.7       0.8977
   TERMINAL TOTAL .  -602.4 +j   -295.5      671.0       0.8978

ELEMENT = "Line.LINE4"
N5            1       201.1 +j     98.8      224.1       0.8975
N5            2       200.5 +j     98.2      223.2       0.8981
N5            3       200.8 +j     98.5      223.7       0.8977
   TERMINAL TOTAL .   602.4 +j    295.5      671.0       0.8978
N6            1      -200.0 +j    -96.9      222.2       0.9000
N6            2      -200.0 +j    -96.9      222.2       0.9000
N6            3      -200.0 +j    -96.9      222.2       0.9000
   TERMINAL TOTAL .  -600.0 +j   -290.6      666.7       0.9000

= = = = = = = = = = = = = = = = = = =  = = = = = = = = = = =  = =

Power Conversion Elements

  Bus     Phase     kW   +j  kvar         kVA         PF

ELEMENT = "Load.LOAD1"
N4            1    1800.0 +j  871.8     2000.0       0.9000
N4            2    1800.0 +j  871.8     2000.0       0.9000
N4            3    1800.0 +j  871.8     2000.0       0.9000
N4            0       0.0 +j    0.0        0.0       1.0000
  TERMINAL TOTAL  .  5400.0 +j   2615.3     6000.0       0.9000

ELEMENT = "Load.LOAD2"
N6            1     200.0 +j   96.9      222.2       0.9000
N6            2     200.0 +j   96.9      222.2       0.9000
N6            3     200.0 +j   96.9      222.2       0.9000
N6            0       0.0 +j    0.0        0.0       1.0000
  TERMINAL TOTAL  .   600.0 +j    290.6      666.7       0.9000


Total Circuit Losses =  762.8 +j 2032.0
