GridLAB-D/Modified 6-Node Base Case/DSS Model and Result Files/4busDYBal_VLN_Node.Txt

LINE-GROUND and LINE-LINE VOLTAGES BY BUS & NODE

Bus       Node    VLN (kV)   Angle      pu     Base kV    Node-Node   VLL (kV)  Angle      pu

SOURCEBUS 1       7.1993 /_    0.0   0.99997    12.470        1-2      12.47 /_   30.0   0.99997
   -      2       7.1993 /_ -120.0   0.99997    12.470        2-3      12.47 /_  -90.0   0.99997
   -      3       7.1993 /_  120.0   0.99997    12.470        3-1      12.47 /_  150.0   0.99997
N2 ...... 1       7.0958 /_   -0.3   0.98558    12.470        1-2     12.319 /_   29.7   0.98791
   -      2       7.1227 /_ -120.4   0.98933    12.470        2-3     12.328 /_  -90.5    0.9886
   -      3       7.1076 /_  119.5   0.98723    12.470        3-1     12.291 /_  149.6   0.98562
N3 ...... 1       2.2195 /_  -34.3    0.9241     4.160        1-2     3.8542 /_   -3.9    0.9265
   -      2       2.2408 /_ -153.8   0.93296     4.160        2-3     3.8812 /_ -124.0   0.93299
   -      3       2.2339 /_   85.9   0.93011     4.160        3-1     3.8591 /_  115.7   0.92768
N4 ...... 1       1.8288 /_  -40.7   0.76145     4.160        1-2     3.3032 /_   -8.5   0.79405
   -      2       2.0085 /_ -159.5   0.83626     4.160        2-3     3.4144 /_ -130.7   0.82077
   -      3       1.9145 /_   79.5   0.79711     4.160        3-1     3.2466 /_  108.7   0.78043
N5 ...... 1       1.8135 /_  -41.0   0.75505     4.160        1-2     3.2813 /_   -8.7   0.78878
   -      2       1.9996 /_ -159.7   0.83255     4.160        2-3     3.3965 /_ -131.0   0.81647
   -      3        1.902 /_   79.3   0.79191     4.160        3-1     3.2228 /_  108.3   0.77472
N6 ...... 1       1.7981 /_  -41.4   0.74866     4.160        1-2     3.2595 /_   -8.9   0.78353
   -      2       1.9908 /_ -160.0   0.82887     4.160        2-3     3.3787 /_ -131.4    0.8122
   -      3       1.8896 /_   79.0   0.78674     4.160        3-1     3.1992 /_  108.0   0.76903
